21
 
O          0.24896       -0.67940       -1.91335
C         -0.42500       -1.83606       -2.38423
H          0.23958       -2.70800       -2.39782
H         -1.28796       -2.09251       -1.75765
C         -0.98801       -1.55909       -3.76945
H         -1.74583       -0.77641       -3.72727
H         -1.44886       -2.47396       -4.14498
N          0.02029       -1.10859       -4.83268
C          1.30083       -1.89635       -4.74515
H          1.93017       -1.62476       -5.59108
H          1.06883       -2.95969       -4.78509
H          1.80470       -1.64699       -3.81452
C          0.33077        0.36698       -4.68532
H          0.72947        0.54151       -3.69137
H         -0.59117        0.92934       -4.82426
H          1.05222        0.64102       -5.45372
C         -0.60585       -1.33203       -6.18697
H          0.05574       -0.92797       -6.95151
H         -1.56615       -0.81950       -6.22038
H         -0.74661       -2.40034       -6.34402
H          0.45164       -0.76853       -0.97570
